LAMMPS (23 Jun 2022 - Update 2)
################################################################################
# GRAPHENE: TENSILE TEST
################################################################################
#
# This is a lammps input file to simulate the stretching or compression of
# graphene. The output data can be used to calculate the Young's modulus and the
# breaking stress/strain. Buckling of a graphene sheet can be studied by
# compressing the sheet.
#
# When using this script, make sure that lammps is installed with the USER-REAXC
# and the MANYBODY packages.
#
# Date: 28/03/2016
# Author: Jeroen Mulkers
# Mail: jeroen.mulkers@uantwerpen.be
#
################################################################################

# UNITS
# 'real' units are needed when using reax/c. The default time step (1fs) for
# real units is used. Some useful conversion factors are defined.
units        real
timestep     0.1
variable     fpress  equal 0.000101325  # atm -> GPa
variable     fenergy equal 0.043        # Kcal/mole -> eV

# GRAPHENE SHEET
# The atom positions and the simulation box size will be read from a data file.
# Reactive force fields (reaxFF) are used to describe the interaction between
# the carbon atoms.(The pair_style reax is deprecated. so we use the modern
# reax/c implementation)
dimension    3
boundary     p p f
atom_style   charge
read_data    silicene.dat
Reading data file ...
  orthogonal box = (0 0 -10) to (65.502 37.8176 10)
  reading atoms ...
  400 atoms
pair_style   reax/c NULL checkqeq no
pair_coeff   * * ffield.reax.CHONSSi.2 Si

# OUTPUT
# Calculate the average total, kinetic and potential energy per atom. Stress and
# strain are defined in x and y direction. When calculating the stress, we
# assume that the thickness of graphene is 3.35A.
variable     tmp     equal lx
variable     lx0     equal 65.502
variable     tmp     equal ly
variable     ly0     equal 37.8176
variable     etotal  equal etotal/atoms*0.043
variable     pe      equal     pe/atoms*0.043
variable     ke      equal     ke/atoms*0.043
variable     strainx equal (lx-65.502)/65.502
variable     strainy equal (ly-37.8176)/37.8176
variable     stressx equal -pxx*(lz/3.35)*0.000101325
variable     stressy equal -pyy*(lz/3.35)*0.000101325
thermo_style custom step time temp etotal press v_etotal v_pe v_ke              v_strainx v_stressx v_strainy v_stressy

# TEMPERATURE SETTINGS
variable     temp index 500
variable     seed index 1717
velocity     all create 500 1717 dist uniform

# EQUILIBRATION
# Relaxation of the system will be done in a NPT ensemble. The size of the
# simulation box can change in x and y direction to resolve stresses. The number
# of time steps should be large enough to relax the system in your final
# simulation but can be small for debugging purposes.
fix          fnpt all npt temp 500 500 10 x 0 0 500 y 0 0 500
thermo       1
run          1000

CITE-CITE-CITE-CITE-CITE-CITE-CITE-CITE-CITE-CITE-CITE-CITE-CITE

Your simulation uses code contributions which should be cited:

- pair reaxff command:

@Article{Aktulga12,
 author = {H. M. Aktulga, J. C. Fogarty, S. A. Pandit, A. Y. Grama},
 title = {Parallel reactive molecular dynamics: Numerical methods and algorithmic techniques},
 journal = {Parallel Computing},
 year =    2012,
 volume =  38,
 pages =   {245--259}
}

CITE-CITE-CITE-CITE-CITE-CITE-CITE-CITE-CITE-CITE-CITE-CITE-CITE

  update every 1 steps, delay 10 steps, check yes
Step          Time           Temp          TotEng         Press         v_etotal         v_pe           v_ke        v_strainx      v_stressx      v_strainy      v_stressy
0   0              500           -32324.204     -12789.914     -3.474852      -3.5387792      0.063927198    0              11.230916      0              11.230989
Averages over the last 501 of 1001 rows, steps 500 to 1000:
Temp TotEng Press v_etotal v_pe v_ke v_strainx v_stressx v_strainy v_stressy
503.165 -33584.3 -121.123 -3.61032 -3.67465 0.0643319 0.00729903 0.205552 -0.00188398 -0.0491749
Loop time of 4.8458 on 64 procs for 1000 steps with 400 atoms

# DEFORMATION
# Rescale the box to simulate stretching (scale > 1) or compressing (scale<1)
# of the graphene sheet. Again, a NPT ensemble is used. But this time the size
# of the box can only change in the direction perpendicular to the direction of
# deformation. Change x and y to switch the deformation direction.
fix          boxdeform all deform 1 x scale 2 remap x
fix          fnpt all npt temp 500 500 10 y 0 0 500
dump         1 all atom 10 dmp.lammpstrj
thermo       1
run          10000
Step          Time           Temp          TotEng         Press         v_etotal         v_pe           v_ke        v_strainx      v_stressx      v_strainy      v_stressy
1000   100            504.3118      -33693.377     -2602.4112     -3.6220381     -3.6865165      0.06447848     0.011037408    2.1899948      0.00094873435  2.3911166
Averages over the last 5001 of 10001 rows, steps 6000 to 11000:
Temp TotEng Press v_etotal v_pe v_ke v_strainx v_stressx v_strainy v_stressy
510.282 -28821.2 -2493.02 -3.09828 -3.16352 0.0652418 0.769315 4.24006 -0.177937 0.315244
Loop time of 39.2309 on 64 procs for 10000 steps with 400 atoms
