LAMMPS (23 Jun 2022 - Update 2)
################################################################################
# GRAPHENE: TENSILE TEST
################################################################################
#
# This is a lammps input file to simulate the stretching or compression of
# graphene. The output data can be used to calculate the Young's modulus and the
# breaking stress/strain. Buckling of a graphene sheet can be studied by
# compressing the sheet.
#
# When using this script, make sure that lammps is installed with the USER-REAXC
# and the MANYBODY packages.
#
# Date: 28/03/2016
# Author: Jeroen Mulkers
# Mail: jeroen.mulkers@uantwerpen.be
#
################################################################################

# UNITS
# 'real' units are needed when using reax/c. The default time step (1fs) for
# real units is used. Some useful conversion factors are defined.
units        real
timestep     1
variable     fpress  equal 0.000101325  # atm -> GPa
variable     fenergy equal 0.043        # Kcal/mole -> eV

# GRAPHENE SHEET
# The atom positions and the simulation box size will be read from a data file.
# Reactive force fields (reaxFF) are used to describe the interaction between
# the carbon atoms.(The pair_style reax is deprecated. so we use the modern
# reax/c implementation)
dimension    3
boundary     p p f
atom_style   charge
read_data    graphene_N400.dat
Reading data file ...
  orthogonal box = (0 0 -10) to (30 17.3205 10)
  reading atoms ...
  400 atoms
pair_style   reax/c NULL checkqeq no
pair_coeff   * * ffield.reax C

# OUTPUT
# Calculate the average total, kinetic and potential energy per atom. Stress and
# strain are defined in x and y direction. When calculating the stress, we
# assume that the thickness of graphene is 3.35A.
variable     tmp     equal lx
variable     lx0     equal 30
variable     tmp     equal ly
variable     ly0     equal 17.3205
variable     etotal  equal etotal/atoms*0.043
variable     pe      equal     pe/atoms*0.043
variable     ke      equal     ke/atoms*0.043
variable     strainx equal (lx-30)/30
variable     strainy equal (ly-17.3205)/17.3205
variable     stressx equal -pxx*(lz/3.35)*0.000101325
variable     stressy equal -pyy*(lz/3.35)*0.000101325
thermo_style custom step time temp etotal press v_etotal v_pe v_ke              v_strainx v_stressx v_strainy v_stressy

# TEMPERATURE SETTINGS
variable     temp index 300
variable     seed index 1717
velocity     all create 300 1717 dist uniform

# EQUILIBRATION
# Relaxation of the system will be done in a NPT ensemble. The size of the
# simulation box can change in x and y direction to resolve stresses. The number
# of time steps should be large enough to relax the system in your final
# simulation but can be small for debugging purposes.
fix          fnpt all npt temp 300 300 10 x 0 0 500 y 0 0 500
thermo       1
run          5000

CITE-CITE-CITE-CITE-CITE-CITE-CITE-CITE-CITE-CITE-CITE-CITE-CITE

Your simulation uses code contributions which should be cited:

- pair reaxff command:

@Article{Aktulga12,
 author = {H. M. Aktulga, J. C. Fogarty, S. A. Pandit, A. Y. Grama},
 title = {Parallel reactive molecular dynamics: Numerical methods and algorithmic techniques},
 journal = {Parallel Computing},
 year =    2012,
 volume =  38,
 pages =   {245--259}
}

CITE-CITE-CITE-CITE-CITE-CITE-CITE-CITE-CITE-CITE-CITE-CITE-CITE

  update every 1 steps, delay 10 steps, check yes
Step          Time           Temp          TotEng         Press         v_etotal         v_pe           v_ke        v_strainx      v_stressx      v_strainy      v_stressy
0   0              300            28003.036      953169.3       3.0103264      2.97197        0.038356319    0             -864.43283      0             -864.43285
Averages over the last 2501 of 5001 rows, steps 2500 to 5000:
Temp TotEng Press v_etotal v_pe v_ke v_strainx v_stressx v_strainy v_stressy
300.292 -78861 -1.22468 -8.47756 -8.51595 0.0383936 0.443819 0.000949703 0.443877 -6.28441e-05
Loop time of 96.5017 on 64 procs for 5000 steps with 400 atoms

# DEFORMATION
# Rescale the box to simulate stretching (scale > 1) or compressing (scale<1)
# of the graphene sheet. Again, a NPT ensemble is used. But this time the size
# of the box can only change in the direction perpendicular to the direction of
# deformation. Change x and y to switch the deformation direction.
fix          boxdeform all deform 1 x scale 0.5 remap x
fix          fnpt all npt temp 300 300 10 y 0 0 500
dump         1 all atom 10 dmp.lammpstrj
thermo       1
run          10000
Step          Time           Temp          TotEng         Press         v_etotal         v_pe           v_ke        v_strainx      v_stressx      v_strainy      v_stressy
5000   5000           303.18379     -78836.687      7750.3514     -8.4749438     -8.5137072      0.03876338     0.44167473    -6.6490411      0.44608086    -7.350105
Averages over the last 5001 of 10001 rows, steps 10000 to 15000:
Temp TotEng Press v_etotal v_pe v_ke v_strainx v_stressx v_strainy v_stressy
300.715 -78404.1 1004.57 -8.42844 -8.46689 0.0384477 -0.0989533 -1.83616 0.448122 -0.00404613
Loop time of 214.94 on 64 procs for 10000 steps with 400 atoms
