LAMMPS (23 Jun 2022 - Update 2)
################################################################################
# GRAPHENE: POTENTIAL PROFILE
################################################################################
#
# Input script for lammps to calculate the potential energy in function of the
# distance between carbon atoms in a graphene layer.
#
# When using this script, make sure that lammps is installed with the USER-REAXC
# and the MANYBODY packages.
#
# Date: 28/03/2016
# Author: Jeroen Mulkers
# Mail: jeroen.mulkers@uantwerpen.be
#
################################################################################

# UNITS
# 'real' units are needed when using reax/c. A useful energy conversion factor
# is defined.
units        real
variable     fenergy equal 0.043 # Kcal/mole -> eV

# GRAPHENE SHEET
# The atom positions and the simulation box size will be read from a data file.
# Reactive force fields (reaxFF) are used to describe the interaction between
# the carbon atoms.(The pair_style reax is deprecated. so we use the modern
# reax/c implementation)
dimension    2
boundary     p p p
atom_style   charge
read_data    silicene.dat
Reading data file ...
  orthogonal box = (0 0 -10) to (65.502 37.8176 10)
  reading atoms ...
  400 atoms
pair_style   reax/c NULL checkqeq no
pair_coeff   * * ffield.reax.CHONSSi.2 Si

# OUTPUT
# Calculate the average total energy per atom and the distance 'a' between
# carbon atoms in two ways (should give the same size)
variable     energy equal etotal/atoms*0.043
variable     a1 equal lx/3
variable     a2 equal ly/sqrt(3)
thermo_style custom step etotal pe ke v_energy v_a1 v_a2 pxx pyy
dump dumpID all xyz 50 dump.xyz

# DEFORMATION
fix          1 all deform 1 x erate 0.001 y erate 0.001 remap x
thermo       1
run          2000

CITE-CITE-CITE-CITE-CITE-CITE-CITE-CITE-CITE-CITE-CITE-CITE-CITE

Your simulation uses code contributions which should be cited:

- pair reaxff command:

@Article{Aktulga12,
 author = {H. M. Aktulga, J. C. Fogarty, S. A. Pandit, A. Y. Grama},
 title = {Parallel reactive molecular dynamics: Numerical methods and algorithmic techniques},
 journal = {Parallel Computing},
 year =    2012,
 volume =  38,
 pages =   {245--259}
}

CITE-CITE-CITE-CITE-CITE-CITE-CITE-CITE-CITE-CITE-CITE-CITE-CITE

  update every 1 steps, delay 10 steps, check yes
Step         TotEng         PotEng         KinEng        v_energy         v_a1           v_a2           Pxx            Pyy
0  -32918.876     -32918.876      0             -3.5387792      21.834         21.834002     -382442.46     -382442.11
Averages over the last 1001 of 2001 rows, steps 1000 to 2000:
TotEng PotEng KinEng v_energy v_a1 v_a2 Pxx Pyy
-363.531 -363.531 0 -0.0390796 54.585 54.585 -200.076 -200.076
Loop time of 3.65051 on 64 procs for 2000 steps with 400 atoms
